<?xml version="1.0" encoding="utf-8"?>
<!DOCTYPE population SYSTEM "http://www.matsim.org/files/dtd/population_v5.dtd">

<population>

<!-- ====================================================================== -->

	<person id="0"  employed="yes">
		<plan selected="yes">
			<act type="h9" facility="0" x="3.1287363944718488E7" y="1.4060148203393878E7" end_time="08:10:30" />
			<leg mode="car" dep_time="08:10:30">
			</leg>
			<act type="w5"  facility="1" x="3.1258053763833724E7" y="1.4051898943636538E7" end_time="08:10:30" />
			<leg mode="car" dep_time="08:10:30">
			</leg>
			<act type="h9"  facility="0" x="3.1287363944718488E7" y="1.4060148203393878E7"  />
		</plan>

	</person>

<!-- ====================================================================== -->

	<person id="1" age="25" employed="yes">
		<plan selected="yes">
			<act type="h8" facility="1" x="3.1258053763833724E7" y="1.4051898943636538E7" end_time="08:10:30" />
			<leg mode="car" dep_time="08:10:30">
			</leg>
			<act type="w7" facility="0" x="3.1287363944718488E7" y="1.4060148203393878E7" end_time="08:10:30" />
			<leg mode="car" dep_time="08:10:30">
			</leg>
			<act type="h8" facility="1" x="3.1258053763833724E7" y="1.4051898943636538E7"  />
		</plan>

	</person>

</population>
